7

  He   0.000000000000   0.000000000000   0.000000000000
  He   2.918767089092   0.000000000000   0.000000000000
  He   0.000000000000   2.918767089092   0.000000000000
  He   2.918767089092   2.918767089092   0.000000000000
  He   1.459383541106   1.459383541106   2.063880000000
  He   1.459383541106   1.459383541106  -2.063880000000
  He   1.459383541106   1.459383541106   0.000000000000
