7

  He   0.000000000000   0.000000000000   0.000000000000
  He   3.283612975229   0.000000000000   0.000000000000
  He   0.000000000000   3.283612975229   0.000000000000
  He   3.283612975229   3.283612975229   0.000000000000
  He   1.641806483745   1.641806483745   2.321865000000
  He   1.641806483745   1.641806483745  -2.321865000000
  He   1.641806483745   1.641806483745   0.000000000000
