7

  He   0.000000000000   0.000000000000   0.000000000000
  He  13.499297787052   0.000000000000   0.000000000000
  He   0.000000000000  13.499297787052   0.000000000000
  He  13.499297787052  13.499297787052   0.000000000000
  He   6.749648877617   6.749648877617   9.545445000000
  He   6.749648877617   6.749648877617  -9.545445000000
  He   6.749648877617   6.749648877617   0.000000000000
