7

  He   0.000000000000   0.000000000000   0.000000000000
  He   4.013304747502   0.000000000000   0.000000000000
  He   0.000000000000   4.013304747502   0.000000000000
  He   4.013304747502   4.013304747502   0.000000000000
  He   2.006652369021   2.006652369021   2.837835000000
  He   2.006652369021   2.006652369021  -2.837835000000
  He   2.006652369021   2.006652369021   0.000000000000
