7

  He   0.000000000000   0.000000000000   0.000000000000
  He   9.485993039550   0.000000000000   0.000000000000
  He   0.000000000000   9.485993039550   0.000000000000
  He   9.485993039550   9.485993039550   0.000000000000
  He   4.742996508596   4.742996508596   6.707610000000
  He   4.742996508596   4.742996508596  -6.707610000000
  He   4.742996508596   4.742996508596   0.000000000000
