7

  He   0.000000000000   0.000000000000   0.000000000000
  He   6.932071836594   0.000000000000   0.000000000000
  He   0.000000000000   6.932071836594   0.000000000000
  He   6.932071836594   6.932071836594   0.000000000000
  He   3.466035910128   3.466035910128   4.901715000000
  He   3.466035910128   3.466035910128  -4.901715000000
  He   3.466035910128   3.466035910128   0.000000000000
