7

  He   0.000000000000   0.000000000000   0.000000000000
  He   8.026609495004   0.000000000000   0.000000000000
  He   0.000000000000   8.026609495004   0.000000000000
  He   8.026609495004   8.026609495004   0.000000000000
  He   4.013304738043   4.013304738043   5.675670000000
  He   4.013304738043   4.013304738043  -5.675670000000
  He   4.013304738043   4.013304738043   0.000000000000
