7

  He   0.000000000000   0.000000000000   0.000000000000
  He   5.107842405912   0.000000000000   0.000000000000
  He   0.000000000000   5.107842405912   0.000000000000
  He   5.107842405912   5.107842405912   0.000000000000
  He   2.553921196936   2.553921196936   3.611790000000
  He   2.553921196936   2.553921196936  -3.611790000000
  He   2.553921196936   2.553921196936   0.000000000000
