7

  He   0.000000000000   0.000000000000   0.000000000000
  He   5.837534178185   0.000000000000   0.000000000000
  He   0.000000000000   5.837534178185   0.000000000000
  He   5.837534178185   5.837534178185   0.000000000000
  He   2.918767082213   2.918767082213   4.127760000000
  He   2.918767082213   2.918767082213  -4.127760000000
  He   2.918767082213   2.918767082213   0.000000000000
