7

  He   0.000000000000   0.000000000000   0.000000000000
  He  10.945376584097   0.000000000000   0.000000000000
  He   0.000000000000  10.945376584097   0.000000000000
  He  10.945376584097  10.945376584097   0.000000000000
  He   5.472688279149   5.472688279149   7.739550000000
  He   5.472688279149   5.472688279149  -7.739550000000
  He   5.472688279149   5.472688279149   0.000000000000
