7

  He   0.000000000000   0.000000000000   0.000000000000
  He  12.404760128643   0.000000000000   0.000000000000
  He   0.000000000000  12.404760128643   0.000000000000
  He  12.404760128643  12.404760128643   0.000000000000
  He   6.202380049702   6.202380049702   8.771490000000
  He   6.202380049702   6.202380049702  -8.771490000000
  He   6.202380049702   6.202380049702   0.000000000000
