7

  He   0.000000000000   0.000000000000   0.000000000000
  He  10.580530697960   0.000000000000   0.000000000000
  He   0.000000000000  10.580530697960   0.000000000000
  He  10.580530697960  10.580530697960   0.000000000000
  He   5.290265336511   5.290265336511   7.481565000000
  He   5.290265336511   5.290265336511  -7.481565000000
  He   5.290265336511   5.290265336511   0.000000000000
