7

  He   0.000000000000   0.000000000000   0.000000000000
  He  11.675068356370   0.000000000000   0.000000000000
  He   0.000000000000  11.675068356370   0.000000000000
  He  11.675068356370  11.675068356370   0.000000000000
  He   5.837534164426   5.837534164426   8.255520000000
  He   5.837534164426   5.837534164426  -8.255520000000
  He   5.837534164426   5.837534164426   0.000000000000
