7

  He   0.000000000000   0.000000000000   0.000000000000
  He  11.310222470233   0.000000000000   0.000000000000
  He   0.000000000000  11.310222470233   0.000000000000
  He  11.310222470233  11.310222470233   0.000000000000
  He   5.655111221787   5.655111221787   7.997535000000
  He   5.655111221787   5.655111221787  -7.997535000000
  He   5.655111221787   5.655111221787   0.000000000000
